OPT_V10/Two_days_MYC3/powerflow_results_t21.txt
Pandapower Network Debug Info
==================================================

BUS:
       vm_pu  va_degree      p_mw    q_mvar
0   0.992345   0.160146  0.001111  0.001120
1   0.987926   0.267875  0.001263  0.002347
2   0.984004   0.361367  0.001802  0.003158
3   0.987853   0.259164  0.002902  0.004800
4   0.999884   0.000795  0.011666  0.010733
5   0.999872   0.000842  0.009261  0.008420
6   0.999862   0.000875  0.012196  0.010681
7   0.999928   0.000618  0.000000  0.000000
8   0.999928   0.000625  0.000000  0.000000
9   1.000000   0.000000 -0.040371 -0.046376
10  1.000000   0.000006  0.000000  0.000000
--------------------------------------------------

LINE:
   p_from_mw  q_from_mvar   p_to_mw  q_to_mvar         pl_mw       ql_mvar  i_from_ka   i_to_ka      i_ka  vm_from_pu  va_from_degree  vm_to_pu  va_to_degree  loading_percent
0   0.040361     0.042376 -0.040358  -0.042374  3.349912e-06  2.611981e-06   0.002253  0.002253  0.002253    1.000000        0.000006  0.999928      0.000618         0.979350
1   0.033125     0.029836 -0.033124  -0.029835  1.537100e-06  1.198502e-06   0.001716  0.001716  0.001716    0.999928        0.000618  0.999884      0.000795         0.746109
2   0.007223     0.011538 -0.007136  -0.011471  8.667831e-05  6.758451e-05   0.019649  0.019649  0.019649    0.999928        0.000625  0.992345      0.160146         8.543062
3  -0.021457    -0.019101  0.021458   0.019101  2.854703e-07  2.225859e-07   0.001106  0.001106  0.001106    0.999872        0.000842  0.999884      0.000795         0.480811
4  -0.012196    -0.010681  0.012196   0.010682  1.285811e-07  1.002568e-07   0.000624  0.000624  0.000624    0.999862        0.000875  0.999872      0.000842         0.271347
5  -0.003077    -0.005515  0.003101   0.005534  2.417524e-05  1.884983e-05   0.009227  0.009227  0.009227    0.987926        0.267875  0.992345      0.160146         4.011564
6  -0.002902    -0.004800  0.002923   0.004817  2.152559e-05  1.678386e-05   0.008195  0.008195  0.008195    0.987853        0.259164  0.992345      0.160146         3.563226
7  -0.001802    -0.003158  0.001814   0.003168  1.235157e-05  9.630725e-06   0.005334  0.005334  0.005334    0.984004        0.361367  0.987926      0.267875         2.318921
--------------------------------------------------

TRAFO:
    p_hv_mw  q_hv_mvar   p_lv_mw  q_lv_mvar    pl_mw  ql_mvar   i_hv_ka   i_lv_ka  vm_hv_pu  va_hv_degree  vm_lv_pu  va_lv_degree  loading_percent
0  0.007233   0.012538 -0.007223  -0.011538  0.00001    0.001  0.000557  0.019649  0.999928      0.000618  0.999928      0.000625         0.144755
1  0.040371   0.046376 -0.040361  -0.042376  0.00001    0.004  0.000507  0.002253  1.000000      0.000000  1.000000      0.000006         0.153717
--------------------------------------------------
